Circuit: * Z:\home\radoslav\Desktop\dcdcConverter.asc

Direct Newton iteration for .op point succeeded.

Date: Tue Sep 18 20:54:22 2012
Total elapsed time: 1984.370 seconds.

tnom = 27
temp = 27
method = modified trap
totiter = 44786397
traniter = 44786392
tranpoints = 12939784
accept = 9828252
rejected = 3111532
matrix size = 13
fillins = 2
solver = Normal
Matrix Compiler1: 738 bytes object code size  6.2/3.5/[2.7]
Matrix Compiler2: 969 bytes object code size  3.7/3.5/[2.6]


