Circuit: * Z:\home\radoslav\git\SummerMicroelectronics\ltspice\inverter.asc

Direct Newton iteration for .op point succeeded.

Date: Thu Aug 30 22:18:38 2012
Total elapsed time: 0.533 seconds.

tnom = 27
temp = 27
method = modified trap
totiter = 3328
traniter = 3320
tranpoints = 1255
accept = 1026
rejected = 229
matrix size = 13
fillins = 0
solver = Normal
Matrix Compiler1: 460 bytes object code size  3.4/4.5/[2.7]
Matrix Compiler2: 911 bytes object code size  2.7/3.6/[2.5]


