Circuit: * Z:\home\borisov-r\git\SummerMicroelectronics\ltspice\inverter.asc

Direct Newton iteration for .op point succeeded.

Date: Tue Aug 28 14:20:26 2012
Total elapsed time: 0.107 seconds.

tnom = 27
temp = 27
method = modified trap
totiter = 1676
traniter = 1670
tranpoints = 813
accept = 746
rejected = 67
matrix size = 5
fillins = 0
solver = Normal
Matrix Compiler1: off  [0.4]/0.4/0.5
Matrix Compiler2: off  [0.3]/0.5/0.3


